Version 4
SHEET 1 1064 680
WIRE -1312 -864 -1344 -864
WIRE -1312 -784 -1344 -784
WIRE -1520 -624 -1600 -624
WIRE -1344 -624 -1344 -672
WIRE -1344 -624 -1424 -624
WIRE -1248 -624 -1344 -624
WIRE -1088 -624 -1184 -624
WIRE -832 -624 -1088 -624
WIRE -1600 -544 -1600 -624
WIRE -1344 -544 -1344 -624
WIRE -1088 -544 -1088 -624
WIRE -832 -544 -832 -624
WIRE -1440 -512 -1440 -576
WIRE -1600 -384 -1600 -464
WIRE -1344 -384 -1344 -464
WIRE -1344 -384 -1600 -384
WIRE -1088 -384 -1088 -480
WIRE -1088 -384 -1344 -384
WIRE -832 -384 -832 -464
WIRE -832 -384 -1088 -384
WIRE -1600 -352 -1600 -384
FLAG -1344 -864 SW
FLAG -1440 -512 SW
FLAG -1600 -352 0
FLAG -1344 -784 ref
FLAG -1344 -672 ref
SYMBOL voltage -1312 -880 R0
WINDOW 123 0 0 Left 0
WINDOW 39 0 0 Left 0
SYMATTR InstName PWM
SYMATTR Value PULSE(0 {Von} 0 1n 1n {D/Fs} {1/Fs})
SYMBOL voltage -1600 -560 R0
SYMATTR InstName Vs
SYMATTR Value 30
SYMBOL ind -1360 -560 R0
SYMATTR InstName L1
SYMATTR Value 820”
SYMBOL cap -1104 -544 R0
SYMATTR InstName C1
SYMATTR Value 3.9”
SYMBOL res -848 -560 R0
SYMATTR InstName R1
SYMATTR Value 26.7
SYMBOL diode -1184 -640 R90
WINDOW 0 0 32 VBottom 2
WINDOW 3 32 32 VTop 2
SYMATTR InstName D1
SYMATTR Value MBR350
SYMBOL nmos -1520 -576 R270
SYMATTR InstName M1
SYMATTR Value IRF530
TEXT -1600 -848 Left 2 !.param D = 0.4
TEXT -1600 -808 Left 2 !.param Fs = 40k
TEXT -1600 -888 Left 2 !.tran 0 2.2m
TEXT -1600 -768 Left 2 !.param Von=15
TEXT -1608 -280 Left 2 !.model MBR350 D(IS=50u RS=0.04 N=1.05 BV=50 IBV=10u CJO=250p VJ=0.3 M=0.33 EG=0.69 TT=10n)
TEXT -1608 -232 Left 2 !.meas tran vrms_out RMS V(n002) FROM 2m TO 2.1m\n.meas tran vavg_out AVG V(n002) FROM 2m TO 2.1m\n.meas tran vmax_out MAX V(n002) FROM 2m TO 2.1m\n.meas tran vmin_out MIN V(n002) FROM 2m TO 2.1m\n \n.meas tran vrms_L RMS V(ref) FROM 2m TO 2.1m\n.meas tran vavg_L AVG V(ref) FROM 2m TO 2.1m\n.meas tran vmax_L MAX V(ref) FROM 2m TO 2.1m\n.meas tran vmin_L MIN V(ref) FROM 2m TO 2.1m\n \n.meas tran vrms_diodo RMS V(ref,n002) FROM 2m TO 2.1m\n.meas tran vavg_diodo AVG V(ref,n002) FROM 2m TO 2.1m\n.meas tran vmax_diodo MAX V(ref,n002) FROM 2m TO 2.1m\n.meas tran vmin_diodo MIN V(ref,n002) FROM 2m TO 2.1m\n \n.meas tran irms_out RMS I(R1) FROM 2m TO 2.1m\n.meas tran iavg_out AVG I(R1) FROM 2m TO 2.1m\n.meas tran imax_out MAX I(R1) FROM 2m TO 2.1m\n.meas tran imin_out MIN I(R1) FROM 2m TO 2.1m \n \n.meas tran irms_L RMS I(L1) FROM 2m TO 2.1m\n.meas tran iavg_L AVG I(L1) FROM 2m TO 2.1m\n.meas tran imax_L MAX I(L1) FROM 2m TO 2.1m\n.meas tran imin_L MIN I(L1) FROM 2m TO 2.1m
