Version 4.1
SHEET 1 880 792
WIRE -64 48 -144 48
WIRE 128 48 32 48
WIRE 224 48 128 48
WIRE 400 48 288 48
WIRE 672 48 400 48
WIRE -144 128 -144 48
WIRE 128 144 128 48
WIRE 672 144 672 48
WIRE 400 160 400 48
WIRE 16 176 16 96
WIRE -144 320 -144 208
WIRE 128 320 128 224
WIRE 128 320 -144 320
WIRE 400 320 400 224
WIRE 400 320 128 320
WIRE 672 320 672 224
WIRE 672 320 400 320
WIRE 400 352 400 320
WIRE -144 512 -144 464
WIRE -144 640 -144 592
FLAG 400 352 0
FLAG -144 464 PWM
FLAG 16 176 PWM
FLAG -144 640 0
DATAFLAG -144 416 ""
SYMBOL ind 112 128 R0
SYMATTR InstName L1
SYMATTR Value 800”
SYMATTR SpiceLine Rser=1m
SYMBOL cap 384 160 R0
SYMATTR InstName C1
SYMATTR Value 3.75”
SYMBOL diode 288 32 R90
WINDOW 0 0 32 VBottom 2
WINDOW 3 32 32 VTop 2
SYMATTR InstName D1
SYMBOL res 656 128 R0
SYMATTR InstName R1
SYMATTR Value 26.67
SYMBOL nmos -64 96 R270
SYMATTR InstName M1
SYMBOL voltage -144 112 R0
WINDOW 123 0 0 Left 0
WINDOW 39 0 0 Left 0
SYMATTR InstName V1
SYMATTR Value 30
SYMBOL Misc\\signal -144 496 R0
SYMATTR InstName V2
SYMATTR Value PULSE(0 15 0 10n 10n 10u 25u)
TEXT 112 376 Left 2 !.tran 0 0.202 0.2 0.00000001
