Version 4
SHEET 1 880 1172
WIRE -64 48 -144 48
WIRE 128 48 32 48
WIRE 224 48 128 48
WIRE 400 48 288 48
WIRE 672 48 400 48
WIRE -144 128 -144 48
WIRE 128 144 128 48
WIRE 672 144 672 48
WIRE 400 160 400 48
WIRE 16 176 16 96
WIRE -144 320 -144 208
WIRE 128 320 128 224
WIRE 128 320 -144 320
WIRE 400 320 400 224
WIRE 400 320 128 320
WIRE 672 320 672 224
WIRE 672 320 400 320
WIRE 672 352 672 320
WIRE -144 512 -144 464
WIRE -144 640 -144 592
WIRE -64 848 -144 848
WIRE 128 848 32 848
WIRE 224 848 128 848
WIRE 400 848 288 848
WIRE 672 848 400 848
WIRE -144 928 -144 848
WIRE 128 944 128 848
WIRE 672 944 672 848
WIRE 400 960 400 848
WIRE 16 976 16 896
WIRE -144 1120 -144 1008
WIRE 128 1120 128 1024
WIRE 400 1120 400 1024
WIRE 400 1120 128 1120
WIRE 672 1120 672 1024
WIRE 672 1120 400 1120
WIRE 400 1152 400 1120
FLAG -144 464 PWM
FLAG 16 176 PWM
FLAG 672 352 0
FLAG -144 640 0
FLAG 16 976 PWM
FLAG -144 1120 0
FLAG 400 1152 0
SYMBOL ind 112 128 R0
SYMATTR InstName L1
SYMATTR Value 800”
SYMATTR SpiceLine Rser=1m
SYMBOL cap 384 160 R0
SYMATTR InstName C1
SYMATTR Value 3.75”
SYMBOL res 656 128 R0
SYMATTR InstName R1
SYMATTR Value 26.67
SYMBOL nmos -64 96 R270
SYMATTR InstName M1
SYMBOL voltage -144 112 R0
WINDOW 123 0 0 Left 0
WINDOW 39 0 0 Left 0
SYMATTR InstName V1
SYMATTR Value 30
SYMBOL Misc\\signal -144 496 R0
SYMATTR InstName V2
SYMATTR Value PULSE(0 15 0 10n 10n 10u 25u)
SYMBOL diode 288 32 R90
WINDOW 0 0 32 VBottom 2
WINDOW 3 32 32 VTop 2
SYMATTR InstName D1
SYMBOL ind 112 928 R0
SYMATTR InstName L2
SYMATTR Value 1m
SYMATTR SpiceLine Rser=1m
SYMBOL cap 384 960 R0
SYMATTR InstName C2
SYMATTR Value 4.7”
SYMBOL res 656 928 R0
SYMATTR InstName R2
SYMATTR Value 22
SYMBOL nmos -64 896 R270
SYMATTR InstName M2
SYMBOL voltage -144 912 R0
WINDOW 123 0 0 Left 0
WINDOW 39 0 0 Left 0
SYMATTR InstName V3
SYMATTR Value 24
SYMBOL diode 288 832 R90
WINDOW 0 0 32 VBottom 2
WINDOW 3 32 32 VTop 2
SYMATTR InstName D2
TEXT 112 376 Left 2 !.tran 0 0.01 0 200u
